Circuit: * C:\Users\user\Desktop\Draft2.asc

u1:vx1: Missing value, assumed 0V @ DC
Direct Newton iteration for .op point succeeded.

Date: Sun May 28 00:54:55 2017
Total elapsed time: 0.114 seconds.

tnom = 27
temp = 27
method = modified trap
totiter = 274
traniter = 248
tranpoints = 125
accept = 125
rejected = 0
matrix size = 77
fillins = 62
solver = Normal
Matrix Compiler1: 6.68 KB object code size  4.8/3.6/[1.8]
Matrix Compiler2: 7.00 KB object code size  2.4/3.3/[2.0]

